&share
 wrf_core = 'ARW',
 max_dom = 1,
 start_date = '2020-01-01_00:00:00','2006-08-16_12:00:00',
 end_date   = '2020-01-01_06:00:00','2006-08-16_12:00:00',
 interval_seconds = 21600
 io_form_geogrid = 2,
/

&geogrid
 parent_id         =   0,   1,   2,
 parent_grid_ratio =   1,   3,   3,
 i_parent_start    =   1,  34,   66, 
 j_parent_start    =   1,  27,   62,,
 e_we              =  109, 172, 154,
 e_sn              =  109, 172, 154,
 geog_data_res     = '2m','30s','30s'
 dx = 9000,
 dy = 9000,
 map_proj = 'lambert',
 ref_lat   =  39.95,
 ref_lon   =  115.6,
 truelat1  =  30.0,
 truelat2  =  60.0,
 stand_lon =  113.,
 geog_data_path = '/home/liudi/datasets/WRF_Data/WRF_geog'
/

&ungrib
 out_format = 'WPS',
 prefix = 'FILE',
/

&metgrid
 fg_name = 'FILE'
 io_form_metgrid = 2, 
/
