&share
 wrf_core = 'ARW',
 max_dom = 3,
 start_date = '2000-01-24_12:00:00','2006-08-16_12:00:00',
 end_date   = '2000-01-25_12:00:00','2006-08-16_12:00:00',
 interval_seconds = 21600
 io_form_geogrid = 2,
/

&geogrid
 parent_id         =   0,   1,   2,
 parent_grid_ratio =   1,   3,   3,
 i_parent_start    =   1,  31,   30,
 j_parent_start    =   1,  17,   30,
 e_we              =  74, 112,   94,
 e_sn              =  61,  97,   91,
 geog_data_res     = '10m','2m',
 dx = 30000,
 dy = 30000,
 map_proj = 'lambert',
 ref_lat   =  34.83,
 ref_lon   = -81.03,
 truelat1  =  30.0,
 truelat2  =  60.0,
 stand_lon = -98.0,
 geog_data_path = '/lustre/cmart90/wrf/geog/geog'
/

&ungrib
 out_format = 'WPS',
 prefix = 'FILE',
/

&metgrid
 fg_name = 'FILE'
 io_form_metgrid = 2, 
/
