&time_control
    start_year = 2019, 2019, 2019
    start_month = 1, 1, 1
    start_day = 1, 1, 1
    start_hour = 0, 0, 0
    start_minute = 0, 0, 0
    start_second = 0, 0, 0
    end_year = 2019, 2019, 2019
    end_month = 1, 1, 1
    end_day = 1, 1, 1
    end_hour = 4, 4, 4
    end_minute = 0, 0, 0
    end_second = 0, 0, 0
    interval_seconds = 21600
    input_from_file = .true., .true., .true.
    history_interval = 30, 15, 15
    frames_per_outfile = 1, 1, 1
    restart = .true.
    restart_interval = 60
    io_form_history = 2
    io_form_restart = 2
    io_form_input = 2
    io_form_boundary = 2
    io_form_auxinput5 = 2
    auxinput5_inname = 'wrfchemi_d<domain>_<date>'
    auxinput5_interval_m = 60, 60, 60
    frames_per_auxinput5 = 1, 1, 1
    io_form_auxinput6 = 2
    auxinput6_inname = 'wfd_d<domain>_<date>'
    auxinput6_interval_m = 60, 60, 60
    frames_per_auxinput6 = 1, 1, 1
    debug_level = 0
    auxinput1_inname = 'met_em.d<domain>.<date>'
    write_hist_at_0h_rst = .true.
    io_form_auxhist23 = 2
    auxhist23_interval = 15, 15, 15
    frames_per_auxhist23 = 1, 1, 1
    auxhist23_outname = 'wrfco2_d<domain>_<date>'
    iofields_filename = 'io_fields_twh.txt', 'io_fields_twh.txt', 'io_fields_twh.txt'
/

&domains
    eta_levels = 1.0, 0.99, 0.985, 0.98, 0.975, 0.97, 0.965, 0.96, 0.955,
                 0.95, 0.945, 0.94, 0.935, 0.93, 0.92, 0.91, 0.9, 0.89,
                 0.88, 0.87, 0.86, 0.85, 0.8, 0.75, 0.7, 0.65, 0.6, 0.55,
                 0.5, 0.45, 0.4, 0.35, 0.3, 0.25, 0.2, 0.15, 0.1, 0.05,
                 0.0
    time_step = 45
    time_step_fract_num = 0
    time_step_fract_den = 1
    max_dom = 2
    e_we = 124, 199
    e_sn = 101, 190
    e_vert = 39, 39, 39
    dx = 11784.8125, 3928.2708
    dy = 8894.198, 2964.7327
    p_top_requested = 5000
    num_metgrid_levels = 32
    num_metgrid_soil_levels = 4
    grid_id = 1, 2
    parent_id = 1, 1
    i_parent_start = 1, 39
    j_parent_start = 1, 32
    parent_grid_ratio = 1, 3
    parent_time_step_ratio = 1, 3
    feedback = 1
    smooth_option = 0
/

&physics
    mp_physics = 4, 4, 4
    progn = 0, 0, 0
    naer = 1000000000.0
    ra_lw_physics = 1, 1, 1
    ra_sw_physics = 2, 2, 2
    radt = 30, 30, 30
    sf_sfclay_physics = 91, 91, 91
    sf_surface_physics = 2, 2, 2
    bl_pbl_physics = 1, 1, 1
    bldt = 1, 1, 1
    cu_physics = 1, 1, 0
    cudt = 5, 5, 5
    isfflx = 1
    ifsnow = 1
    icloud = 1
    surface_input_source = 1
    num_soil_layers = 4
    sf_urban_physics = 0, 0, 0
    maxiens = 1
    maxens = 3
    maxens2 = 3
    maxens3 = 16
    ensdim = 144
    cu_rad_feedback = .true.
/

&fdda
/

&dynamics
    w_damping = 1
    diff_opt = 1, 1, 1
    km_opt = 4, 4, 4
    diff_6th_opt = 0, 0, 0
    diff_6th_factor = 0.12, 0.12, 0.12
    base_temp = 290.0
    damp_opt = 0
    zdamp = 5000.0, 5000.0, 5000.0
    dampcoef = 0.2, 0.2, 0.2
    khdif = 0, 0, 0
    kvdif = 0, 0, 0
    non_hydrostatic = .true., .true., .true.
    moist_adv_opt = 1, 1, 1
    scalar_adv_opt = 1, 1, 1
    chem_adv_opt = 1, 1, 1
    tracer_opt = 0
    do_avgflx_em = 1, 1, 1, 1, 1, 1, 1, 1, 1
    do_avgflx_cugd = 1, 1, 1, 1, 1, 1, 1, 1, 1
/

&bdy_control
    spec_bdy_width = 5
    spec_zone = 1
    relax_zone = 4
    specified = .true., .false., .false.
    nested = .false., .true., .true.
/

&grib2
/

&chem
    kemit = 1
    chem_opt = 16, 16, 16
    bioemdt = 0, 0, 0
    photdt = 0, 0, 0
    chemdt = 10, 3, 1
    io_style_emissions = 2
    emiss_inpt_opt = 16, 16, 16
    emiss_opt = 16, 16, 16
    emiss_opt_vol = 0, 0, 0
    emiss_ash_hgt = 20000.0
    chem_in_opt = 0, 0, 0
    phot_opt = 0, 0, 0
    gas_drydep_opt = 0, 0, 0
    aer_drydep_opt = 1, 1, 1
    bio_emiss_opt = 16, 16, 16
    dust_opt = 0
    dmsemis_opt = 0
    seas_opt = 0
    depo_fact = 0.25
    gas_bc_opt = 16, 0, 0
    gas_ic_opt = 16, 16, 16
    aer_bc_opt = 1, 0, 0
    aer_ic_opt = 1, 0, 0
    gaschem_onoff = 0, 0, 0
    aerchem_onoff = 1, 0, 0
    wetscav_onoff = 0, 0, 0
    cldchem_onoff = 0, 0, 0
    vertmix_onoff = 1, 1, 1
    chem_conv_tr = 0, 0, 0
    conv_tr_wetscav = 0, 0, 0
    conv_tr_aqchem = 0, 0, 0
    biomass_burn_opt = 0, 0, 0
    plumerisefire_frq = 30, 0, 0
    have_bcs_chem = .true., .false., .false.
    have_bcs_tracer = .true., .false., .false.
    aer_ra_feedback = 0
    aer_op_opt = 0
    opt_pars_out = 0
    vprm_opt = 'VPRM_table_US', 'VPRM_table_US', 'VPRM_table_US'
/

&namelist_quilt
    nio_tasks_per_group = 0
    nio_groups = 1
/
